Version 4
SHEET 1 2988 1156
WIRE 80 -640 -16 -640
WIRE 176 -640 176 -752
WIRE 176 -640 80 -640
WIRE 256 -640 176 -640
WIRE 400 -640 320 -640
WIRE 464 -640 400 -640
WIRE 608 -640 528 -640
WIRE 752 -640 608 -640
WIRE 400 -576 400 -640
WIRE 608 -576 608 -640
WIRE 80 -544 80 -640
WIRE 80 -448 80 -464
WIRE 400 -448 400 -496
WIRE 608 -448 608 -496
WIRE -240 -272 -256 -272
WIRE -160 -272 -176 -272
WIRE -32 -272 -80 -272
WIRE 16 -272 -32 -272
WIRE 176 -272 96 -272
WIRE -256 -240 -256 -272
WIRE -32 -144 -32 -272
WIRE 16 -144 -32 -144
WIRE 176 -128 176 -272
WIRE 176 -128 80 -128
WIRE 240 -128 176 -128
WIRE -224 -112 -352 -112
WIRE -80 -112 -160 -112
WIRE 16 -112 -80 -112
WIRE 1248 -96 1088 -96
WIRE 48 -64 48 -96
WIRE -80 -48 -80 -112
WIRE 1088 -32 1088 -96
WIRE 1136 -32 1088 -32
WIRE 1248 -16 1248 -96
WIRE 1248 -16 1200 -16
WIRE 1280 -16 1248 -16
WIRE 704 0 640 0
WIRE 864 0 864 -112
WIRE 864 0 768 0
WIRE 912 0 864 0
WIRE 1040 0 992 0
WIRE 1136 0 1040 0
WIRE 1280 0 1280 -16
WIRE 1328 0 1280 0
WIRE 1456 0 1408 0
WIRE 1568 0 1456 0
WIRE 1040 48 1040 0
WIRE 1456 48 1456 0
WIRE -80 64 -80 32
WIRE 1040 208 1040 112
WIRE 1456 208 1456 112
WIRE -512 336 -512 304
WIRE 368 400 320 400
WIRE 1712 464 1536 464
WIRE -512 480 -512 416
WIRE 272 496 272 448
WIRE 304 496 272 496
WIRE 368 496 304 496
WIRE 480 496 432 496
WIRE 304 544 304 496
WIRE 320 544 320 400
WIRE 1536 544 1536 464
WIRE 1600 544 1536 544
WIRE 224 560 224 512
WIRE 272 560 224 560
WIRE 1712 560 1712 464
WIRE 1712 560 1664 560
WIRE 1792 560 1712 560
WIRE 496 576 336 576
WIRE 624 576 496 576
WIRE 832 576 688 576
WIRE 1312 576 1216 576
WIRE 1456 576 1376 576
WIRE 1600 576 1456 576
WIRE -512 592 -512 560
WIRE -512 592 -640 592
WIRE -416 592 -512 592
WIRE 112 592 32 592
WIRE 272 592 192 592
WIRE 496 608 496 576
WIRE -512 624 -512 592
WIRE -640 640 -640 592
WIRE 304 640 304 608
WIRE 1456 656 1456 576
WIRE 496 704 496 672
WIRE -640 736 -640 704
WIRE -512 736 -512 704
WIRE 1456 784 1456 736
FLAG 80 -448 0
FLAG 640 0 GTR_Sig_Biased
IOPIN 640 0 In
FLAG 1040 208 0
FLAG 1456 208 0
FLAG 864 -112 2nd_Order_LPF
FLAG 176 -752 2nd_Order_HPF
FLAG -352 -112 Input_HPF
IOPIN -352 -112 In
FLAG -512 304 0
FLAG -640 736 0
FLAG -512 736 0
FLAG -416 592 2.5V
IOPIN -416 592 Out
FLAG 48 -64 0
FLAG -256 -240 0
FLAG 48 -160 5V
IOPIN 48 -160 In
FLAG -80 64 2.5V
IOPIN -80 64 In
FLAG 240 -128 GTR_Sig_Biased
IOPIN 240 -128 Out
FLAG 1216 576 DAC_Output
IOPIN 1216 576 Out
FLAG 1456 784 0
FLAG 1792 560 GTR_Sig_Unbiased
IOPIN 1792 560 Out
FLAG 32 592 GTR_Sig_Unbiased
IOPIN 32 592 In
FLAG 224 512 0
FLAG 304 640 0
FLAG 272 448 COM
FLAG 480 496 0
FLAG 496 704 0
FLAG 832 576 Output
IOPIN 832 576 Out
FLAG -16 -640 Input
IOPIN -16 -640 In
FLAG 608 -448 0
FLAG 400 -448 0
FLAG 752 -640 Input_HPF
IOPIN 752 -640 Out
FLAG 1568 0 ADC_Input
IOPIN 1568 0 Out
SYMBOL voltage 80 -560 R0
SYMATTR InstName GTR_SIG
SYMBOL polcap 768 -16 R90
WINDOW 0 0 32 VBottom 2
WINDOW 3 32 32 VTop 2
SYMATTR InstName C1
SYMATTR Value 100µ
SYMATTR Description Capacitor
SYMATTR Type cap
SYMATTR SpiceLine V=35 Irms=1.95 Rser=0.03 Lser=0
SYMBOL res 1008 -16 R90
WINDOW 0 0 56 VBottom 2
WINDOW 3 32 56 VTop 2
SYMATTR InstName R1
SYMATTR Value 820
SYMBOL cap 1024 48 R0
SYMATTR InstName C2
SYMATTR Value 22n
SYMBOL OpAmps\\opamp 1168 -80 R0
SYMATTR InstName U1
SYMBOL res 1424 -16 R90
WINDOW 0 0 56 VBottom 2
WINDOW 3 32 56 VTop 2
SYMATTR InstName R2
SYMATTR Value 820
SYMBOL cap 1440 48 R0
SYMATTR InstName C3
SYMATTR Value 22n
SYMBOL polcap -160 -128 R90
WINDOW 0 0 32 VBottom 2
WINDOW 3 32 32 VTop 2
SYMATTR InstName C6
SYMATTR Value 100µ
SYMATTR Description Capacitor
SYMATTR Type cap
SYMATTR SpiceLine V=35 Irms=1.95 Rser=0.03 Lser=0
SYMBOL voltage -512 432 R180
WINDOW 0 24 96 Left 2
WINDOW 3 24 16 Left 2
WINDOW 123 0 0 Left 0
WINDOW 39 0 0 Left 0
SYMATTR InstName MCU_VCC
SYMATTR Value 5V
SYMBOL res -528 464 R0
SYMATTR InstName R5
SYMATTR Value 100k
SYMBOL res -528 608 R0
SYMATTR InstName R6
SYMATTR Value 100k
SYMBOL polcap -656 640 R0
WINDOW 3 24 56 Left 2
SYMATTR InstName C7
SYMATTR Value 100µ
SYMATTR Description Capacitor
SYMATTR Type cap
SYMATTR SpiceLine V=10 Irms=1.04 Rser=0.062 Lser=0
SYMBOL OpAmps\\UniversalOpAmp 48 -128 R0
SYMATTR InstName U4
SYMBOL res 112 -288 R90
WINDOW 0 0 56 VBottom 2
WINDOW 3 32 56 VTop 2
SYMATTR InstName R7
SYMATTR Value 33k
SYMBOL res -64 -288 R90
WINDOW 0 0 56 VBottom 2
WINDOW 3 32 56 VTop 2
SYMATTR InstName R8
SYMATTR Value 5.6k
SYMBOL cap -176 -288 R90
WINDOW 0 0 32 VBottom 2
WINDOW 3 32 32 VTop 2
SYMATTR InstName C8
SYMATTR Value 1µ
SYMBOL res -96 -64 R0
SYMATTR InstName R9
SYMATTR Value 1000000
SYMBOL cap 1376 560 R90
WINDOW 0 0 32 VBottom 2
WINDOW 3 32 32 VTop 2
SYMATTR InstName C9
SYMATTR Value 100n
SYMBOL res 1440 640 R0
SYMATTR InstName R10
SYMATTR Value 100k
SYMBOL OpAmps\\LM308 304 512 R0
SYMATTR InstName U5
SYMBOL res 208 576 R90
WINDOW 0 0 56 VBottom 2
WINDOW 3 32 56 VTop 2
SYMATTR InstName R11
SYMATTR Value 1k
SYMBOL polcap 432 480 R90
WINDOW 0 0 32 VBottom 2
WINDOW 3 32 32 VTop 2
SYMATTR InstName C10
SYMATTR Value 100µ
SYMATTR Description Capacitor
SYMATTR Type cap
SYMATTR SpiceLine V=6.3 Irms=4.08248 Rser=0.015 Lser=0 mfg="KEMET" pn="A700D107M006ATE015" type="Al electrolytic"
SYMBOL polcap 432 384 R90
WINDOW 0 0 32 VBottom 2
WINDOW 3 32 32 VTop 2
SYMATTR InstName C11
SYMATTR Value 100µ
SYMATTR Description Capacitor
SYMATTR Type cap
SYMATTR SpiceLine V=6.3 Irms=4.08248 Rser=0.015 Lser=0 mfg="KEMET" pn="A700D107M006ATE015" type="Al electrolytic"
SYMBOL cap 480 608 R0
SYMATTR InstName C12
SYMATTR Value 100n
SYMBOL polcap 688 560 R90
WINDOW 0 0 32 VBottom 2
WINDOW 3 32 32 VTop 2
SYMATTR InstName C13
SYMATTR Value 10µ
SYMATTR Description Capacitor
SYMATTR Type cap
SYMATTR SpiceLine V=10 Irms=1.04 Rser=0.062 Lser=0
SYMBOL OpAmps\\opamp 1632 496 R0
SYMATTR InstName U6
SYMBOL cap 320 -656 R90
WINDOW 0 0 32 VBottom 2
WINDOW 3 32 32 VTop 2
SYMATTR InstName C14
SYMBOL cap 528 -656 R90
WINDOW 0 0 32 VBottom 2
WINDOW 3 32 32 VTop 2
SYMATTR InstName C15
SYMBOL res 384 -592 R0
SYMATTR InstName R12
SYMBOL res 592 -592 R0
SYMATTR InstName R13
